LTspice 24.0.12 for Windows
Circuit: * C:\users\fadelrio\Documents\Ingenieria\Circuitos\simulaciones_ltspice\Draft1.asc
Start Time: Mon Apr  7 17:46:57 2025
solver = Normal
Maximum thread count: 16
tnom = 27
temp = 27
method = modified trap
Direct Newton iteration for .op point succeeded.
Total elapsed time: 0.087 seconds.

