LTspice 24.0.12 for Windows
Circuit: * C:\users\fadelrio\Documents\Ingenieria\Circuitos\simulaciones_ltspice\Draft1.asc
Start Time: Wed Mar 19 18:01:45 2025
solver = Normal
Maximum thread count: 16
tnom = 27
temp = 27
method = modified trap
.OP point found by inspection.
Total elapsed time: 0.151 seconds.

