LTspice 24.0.12 for Windows
Circuit: * C:\users\fadelrio\Documents\Ingenieria\Circuitos\simulaciones_ltspice\Simu punto C2.asc
Start Time: Mon Mar 24 16:49:39 2025
solver = Normal
Maximum thread count: 16
tnom = 27
temp = 27
method = modified trap
.OP point found by inspection.
Total elapsed time: 0.188 seconds.

