LTspice 24.0.12 for Windows
Circuit: * C:\users\fadelrio\Documents\Ingenieria\Circuitos\simulaciones_ltspice\Simu punto A2.asc
Start Time: Wed Mar 19 20:12:00 2025
solver = Normal
Maximum thread count: 16
tnom = 27
temp = 27
method = modified trap
Direct Newton iteration for .op point succeeded.
Total elapsed time: 0.152 seconds.

