LTspice 24.0.12 for Windows
Circuit: * C:\users\fadelrio\Documents\Ingenieria\AdC\finales\sim_opamp.asc
Start Time: Fri Feb  7 16:07:10 2025
Number of points reduced from 1000000 to 65535.
solver = Normal
Maximum thread count: 16
tnom = 27
temp = 27
method = modified trap
Direct Newton iteration for .op point succeeded.
Total elapsed time: 0.368 seconds.

