LTspice 24.0.12 for Windows
Circuit: * C:\users\fadelrio\Documents\Ingenieria\AdC\TP1 ADC\Draft_tp3.asc
Start Time: Fri Feb  7 16:35:37 2025
solver = Normal
Maximum thread count: 16
tnom = 27
temp = 27
method = modified trap
WARNING: Less than two connections to node +10.  This node is used by v1.
WARNING: Less than two connections to node -10.  This node is used by v2.
Direct Newton iteration for .op point succeeded.
Total elapsed time: 1.526 seconds.

