Circuit: * C:\users\fadelrio\Documents\Ingeniería\AdC\TP1 ADC\Draft_tp3.asc

Number of points reduced from 1000000 to 65535.
Direct Newton iteration failed to find .op point.  (Use ".option noopiter" to skip.)
Starting Gmin stepping
Gmin = 10
vernier = 0.5
vernier = 0.25
vernier = 0.125
Gmin = 5.5165
vernier = 0.0625
vernier = 0.03125
vernier = 0.015625
vernier = 0.0078125
Gmin = 5.49501
vernier = 0.00390625
vernier = 0.00195313
vernier = 0.000976563
vernier = 0.000488281
Gmin = 5.50104
Gmin = 0
Gmin stepping succeeded in finding the operating point.


Date: Sun Nov 24 21:47:20 2024
Total elapsed time: 1.110 seconds.

tnom = 27
temp = 27
method = trap
totiter = 1431
traniter = 0
tranpoints = 0
accept = 0
rejected = 0
matrix size = 31
fillins = 52
solver = Normal
Matrix Compiler1:     224 opcodes
Matrix Compiler2: 3.43 KB object code size  0.9/1.2/[0.6]

