LTspice 24.0.12 for Windows
Circuit: * C:\users\fadelrio\Documents\Ingenieria\AdC\TP1 ADC\Draft3.asc
Start Time: Fri Feb 14 15:58:37 2025
Number of points reduced from 100000 to 65535.
solver = Normal
Maximum thread count: 16
tnom = 27
temp = 27
method = modified trap
Direct Newton iteration for .op point succeeded.
Total elapsed time: 0.301 seconds.

